Version 4
SHEET 1 2636 1920
WIRE 496 608 400 608
WIRE 1712 608 576 608
WIRE 400 688 400 608
WIRE 1056 720 1008 720
WIRE 736 736 672 736
WIRE 1456 752 1376 752
WIRE 1472 752 1456 752
WIRE 400 896 400 752
WIRE 672 800 672 736
WIRE 672 800 592 800
WIRE 1248 800 1168 800
WIRE 1296 800 1248 800
WIRE 1376 800 1376 752
WIRE 1376 800 1296 800
WIRE 896 816 848 816
WIRE 1008 816 1008 720
WIRE 1008 816 896 816
WIRE 1536 832 1536 816
WIRE 1600 832 1536 832
WIRE 1712 832 1712 608
WIRE 1712 832 1600 832
WIRE 1008 880 1008 816
WIRE 1056 880 1008 880
WIRE 1536 880 1536 832
WIRE 432 896 400 896
WIRE 672 896 672 800
WIRE 672 896 432 896
WIRE 736 896 672 896
WIRE 192 912 192 784
WIRE 432 912 432 896
WIRE 1376 944 1376 800
WIRE 1456 944 1376 944
WIRE 192 1008 192 992
WIRE 432 1008 432 976
WIRE 432 1008 192 1008
WIRE 1360 1008 1360 992
WIRE 432 1024 432 1008
WIRE 1360 1024 1360 1008
WIRE 1360 1120 1360 1104
WIRE 1200 1136 1184 1136
WIRE 1248 1136 1200 1136
WIRE 432 1216 432 1168
WIRE 1008 1232 1008 880
WIRE 1120 1232 1120 1200
WIRE 1120 1232 1008 1232
WIRE 1248 1232 1248 1136
WIRE 1296 1232 1296 800
WIRE 1296 1232 1248 1232
WIRE 1360 1232 1360 1184
WIRE 1360 1232 1296 1232
WIRE 1120 1248 1120 1232
WIRE 1360 1264 1360 1232
WIRE 1248 1312 1248 1232
WIRE 1248 1312 1200 1312
WIRE 432 1344 432 1296
WIRE 1360 1344 1360 1328
WIRE 1360 1456 1360 1424
FLAG 592 800 BUS01
IOPIN 592 800 BiDir
FLAG 896 816 BUS02
IOPIN 896 816 BiDir
FLAG 1248 800 BUS03
IOPIN 1248 800 BiDir
FLAG 1600 832 BUS04
IOPIN 1600 832 BiDir
FLAG 432 1168 VDD
IOPIN 432 1168 BiDir
FLAG 432 1344 0
FLAG 432 1024 0
FLAG 1360 1456 0
FLAG 1360 1008 VDD
SYMBOL CS_nMOS_4x_A 1488 896 R0
SYMATTR InstName X2
SYMBOL voltage 432 1200 R0
SYMATTR InstName V1
SYMATTR Value {VDD}
SYMBOL CS_pMOS_4x_A 1472 704 R0
SYMATTR InstName X9
SYMBOL CS_pMOS_4x_B 1184 1088 M0
SYMATTR InstName X10
SYMBOL CS_nMOS_4x_B 1168 1264 M0
SYMATTR InstName X3
SYMBOL inverter_A 1072 672 R0
SYMATTR InstName X17
SYMBOL res 592 592 R90
WINDOW 0 0 56 VBottom 2
WINDOW 3 32 56 VTop 2
SYMATTR InstName R1
SYMATTR Value {Rosc}
SYMBOL cap 416 912 R0
SYMATTR InstName C1
SYMATTR Value {Cosc}
SYMBOL inverter_B 752 688 R0
SYMATTR InstName X1
SYMBOL LED 1344 1264 R0
SYMATTR InstName D1
SYMATTR Value NSSW008CT-P1
SYMBOL LED 1344 1120 R0
SYMATTR InstName D2
SYMATTR Value NSSW008CT-P1
SYMBOL res 1344 1328 R0
SYMATTR InstName R2
SYMATTR Value 47
SYMBOL res 1344 1008 R0
SYMATTR InstName R3
SYMATTR Value 47
SYMBOL Misc/signal 192 896 R0
SYMATTR InstName V2
SYMATTR Value PULSE(0 2.5 0 0.5 0.5 0 1)
SYMBOL Misc/jumper 336 720 R270
SYMATTR InstName X4
TEXT 408 1408 Left 2 !.global VDD\n.param VDD = 2.5\n.inc transistor_models_tsmc025_public.inc
TEXT 408 1544 Left 2 !.tran 10 uic
TEXT 408 1504 Left 2 !.param Cosc = 10uF Rosc = 100K
TEXT 608 488 Left 4 ;Blinky: Schmitt-Trigger Based Relaxation Oscillator
TEXT 1456 1152 Left 2 ;Green
TEXT 1464 1360 Left 2 ;Red
TEXT 1440 1416 Left 2 ;Note: the diode models were chosen \narbritrarily for the simulation; use \nLEDs that you have available.
TEXT 408 1576 Left 2 !.ic v(bus01) = 1.4
TEXT 1064 1504 Left 2 ;Note: The numbers on the symbols correspond to the PCB pin numbers.
